OPT_V9/4ts_w_storgae_myc_NEW_PARAM/powerflow_results_t1.txt
Pandapower Network Debug Info
==================================================

BUS:
       vm_pu  va_degree      p_mw    q_mvar
0   1.004114   0.347057 -0.007208  0.001177
1   1.005046   0.419856  0.001448  0.001627
2   1.008918   0.505156 -0.003496 -0.001057
3   1.004823   0.497672 -0.002593  0.001950
4   1.003286   0.249936 -0.002151  0.000430
5   0.999573   0.220794 -0.003382  0.002082
6   0.997647   0.226503  0.001317  0.001141
7   1.002747   0.251936 -0.005698  0.001931
8   1.001087   0.103728 -0.006867  0.002484
9   0.999943   0.002581  0.003553  0.009833
10  0.999934   0.002795  0.004601  0.008109
11  0.999926   0.002972  0.006296  0.011211
12  0.999930   0.005956  0.000688  0.005584
13  0.999908   0.006406  0.004869  0.011365
14  0.999915   0.006194  0.008622  0.009925
15  0.999971   0.001788  0.000000  0.000000
16  0.999972   0.001791  0.000000  0.000000
17  0.999931   0.005856  0.000000  0.000000
18  0.999931   0.005861  0.000000  0.000000
19  1.000000   0.000000 -0.002715 -0.037924
20  1.000000   0.000005  0.000000  0.000000
21  1.000000   0.000000  0.002517 -0.039991
22  1.000000   0.000005  0.000000  0.000000
--------------------------------------------------

LINE:
    p_from_mw  q_from_mvar   p_to_mw  q_to_mvar         pl_mw       ql_mvar  i_from_ka   i_to_ka      i_ka  vm_from_pu  va_from_degree  vm_to_pu  va_to_degree  loading_percent
0    0.002705     0.033924 -0.002704  -0.033924  1.132864e-06  8.833130e-07   0.001310  0.001310  0.001310    1.000000        0.000005  0.999971      0.001788         0.569522
1   -0.002527     0.035991  0.002531  -0.035988  3.501480e-06  2.730162e-06   0.001389  0.001389  0.001389    1.000000        0.000005  0.999931      0.005856         0.603783
2    0.014451     0.029154 -0.014450  -0.029153  8.187830e-07  6.384186e-07   0.001252  0.001252  0.001252    0.999971        0.001788  0.999943      0.002581         0.544547
3    0.000688     0.005584 -0.000688  -0.005584  1.094974e-08  8.537694e-09   0.000217  0.000217  0.000217    0.999931        0.005856  0.999930      0.005956         0.094166
4    0.013492     0.021290 -0.013492  -0.021290  3.474283e-07  2.708956e-07   0.000970  0.000970  0.000970    0.999931        0.005856  0.999915      0.006194         0.421834
5   -0.011756     0.003770  0.011828  -0.003714  7.129621e-05  5.559083e-05   0.017820  0.017820  0.017820    0.999972        0.001791  1.004114      0.347057         7.748034
6   -0.002051     0.003234  0.002062  -0.003225  1.137765e-05  8.871338e-06   0.005527  0.005527  0.005527    0.999931        0.005861  0.999573      0.220794         2.403245
7   -0.005674     0.001950  0.005698  -0.001931  2.432283e-05  1.896491e-05   0.008660  0.008660  0.008660    0.999931        0.005861  1.002747      0.251936         3.765403
8   -0.008996     0.002930  0.009011  -0.002918  1.539291e-05  1.200211e-05   0.013657  0.013657  0.013657    0.999931        0.005861  1.001087      0.103728         5.937815
9   -0.010897    -0.019320  0.010897   0.019320  1.701661e-07  1.326813e-07   0.000854  0.000854  0.000854    0.999934        0.002795  0.999943      0.002581         0.371219
10  -0.006296    -0.011211  0.006296   0.011211  8.086929e-08  6.305512e-08   0.000495  0.000495  0.000495    0.999926        0.002972  0.999934      0.002795         0.215193
11   0.004869     0.011365 -0.004869  -0.011365  7.478256e-08  5.830919e-08   0.000476  0.000476  0.000476    0.999915        0.006194  0.999908      0.006406         0.206936
12   0.002036    -0.000579 -0.002034   0.000582  2.625676e-06  2.047283e-06   0.003041  0.003041  0.003041    1.005046        0.419856  1.004114      0.347057         1.322053
13   0.002593    -0.001950 -0.002586   0.001956  6.962254e-06  5.428584e-06   0.004661  0.004661  0.004661    1.004823        0.497672  1.004114      0.347057         2.026473
14   0.003496     0.001057 -0.003484  -0.001048  1.185517e-05  9.243674e-06   0.005225  0.005225  0.005225    1.008918        0.505156  1.005046      0.419856         2.271845
15  -0.002145     0.000434  0.002151  -0.000430  5.813952e-06  4.533234e-06   0.003155  0.003155  0.003155    1.001087        0.103728  1.003286      0.249936         1.371784
16  -0.001317    -0.001141  0.001320   0.001143  2.657119e-06  2.071800e-06   0.002522  0.002522  0.002522    0.997647        0.226503  0.999573      0.220794         1.096332
--------------------------------------------------

TRAFO:
    p_hv_mw  q_hv_mvar   p_lv_mw  q_lv_mvar    pl_mw  ql_mvar   i_hv_ka   i_lv_ka  vm_hv_pu  va_hv_degree  vm_lv_pu  va_lv_degree  loading_percent
0 -0.011746   0.004770  0.011756  -0.003770  0.00001    0.001  0.000488  0.017820  0.999971      0.001788  0.999972      0.001791         0.126782
1 -0.016711   0.009114  0.016721  -0.008114  0.00001    0.001  0.000733  0.026828  0.999931      0.005856  0.999931      0.005861         0.190358
2  0.002715   0.037924 -0.002705  -0.033924  0.00001    0.004  0.000314  0.001310  1.000000      0.000000  1.000000      0.000005         0.095054
3 -0.002517   0.039991  0.002527  -0.035991  0.00001    0.004  0.000330  0.001389  1.000000      0.000000  1.000000      0.000005         0.100175
--------------------------------------------------
